<?xml version="1.0" encoding="UTF-8"?>

<!-- generated on 2026-04-12T13:14:52.230398+05:30 by Eclipse SUMO duarouter 1.26.0
<duarouterConfiguration xmlns:xsi="http://www.w3.org/2001/XMLSchema-instance" xsi:noNamespaceSchemaLocation="http://sumo.dlr.de/xsd/duarouterConfiguration.xsd">

    <input>
        <net-file value="network.net.xml"/>
        <route-files value="trips.trips.xml"/>
    </input>

    <output>
        <output-file value="routes.rou.xml"/>
        <alternatives-output value="NUL"/>
    </output>

    <time>
        <begin value="0"/>
        <end value="3600"/>
    </time>

    <report>
        <no-warnings value="true"/>
        <ignore-errors value="true"/>
        <no-step-log value="true"/>
    </report>

</duarouterConfiguration>
-->

<routes xmlns:xsi="http://www.w3.org/2001/XMLSchema-instance" xsi:noNamespaceSchemaLocation="http://sumo.dlr.de/xsd/routes_file.xsd">
    <vehicle id="0" depart="0.00">
        <route edges="1339927143 1339927142 1339927145 1339927111 1339927136 1339927134 1339927118 1339919454 1339927061 1339927054 1339927055 1339927056 1339919451 241515724#6 241515724#7 241515724#8 241515724#9 -355943788 -241515657#3 -241515657#2 -241515657#1 -241515657#0 435599200#5 435599200#6 435599200#7 435599200#8 435599200#9 232761850#1 232761850#2 232761850#3 232761850#4 232761850#5 232761850#6 232761850#7 232761850#8 232761850#9 232761850#10 232761850#11 232761850#12 232761850#13 232761850#14 232761850#15 232761850#16 232761850#17 762999830 762999834#7 762999834#8 762999834#9 762999834#10 762999834#11 762999834#12 762999834#13 762999834#14 762999834#15 762999834#16 762999834#17 762999834#18 762999834#19 762999834#20 762999834#21 762999834#22 762999834#23 762999834#24 762999834#25 762999834#26 762999834#27 1306367754 -45057665#23 -45057665#22 -45057665#21 -45057665#20 -45057665#19 -45057665#18 -45057665#17 -45057665#16 -45057665#15 -45057665#14 -45057665#13 -45057665#12 -45057665#11 -45057665#10 -45057665#9 -45057665#8 -45057665#7 -45057665#6 -45057665#5 -45057665#4 -45057665#3 -45057665#2 1283521458 -1283521443#1 -1283521456"/>
    </vehicle>
    <vehicle id="1" depart="0.50">
        <route edges="-265788703#17 -265788703#16 -265788703#15 -265788703#14 -265788703#13 -265788703#12 -265788703#11 -265788703#10 -265788703#9 -265788703#8 241610783#0 241610783#1 241610919#0 241610919#1 241610919#2 241610919#3 241610740#0 241610740#1 241610740#2 241610740#3 241610740#4 241610740#5 -241610902 -393398894#2 -393398894#1 -393398894#0 241610784#0 -241610797#1 -241610797#0"/>
    </vehicle>
    <vehicle id="2" depart="1.00">
        <route edges="241515660#0 241515660#1 -241515720#0 -241515704#4 -241515704#3 -241515704#2 -241515704#1 -241515704#0 1341349064#3 1341349064#4 241515669#0 241515669#1 -1337727163#1 -1337727163#0 -1337727164 -550048647#3 -1341166349 1341207430 1341207434 1341207438 1341207440 1341207446 1341371960 1341207450 1341207452 1341207458 1341166351 1341207460 -1341166344#1 -1341166344#0 -1341207466 -1341371976 1341371977"/>
    </vehicle>
    <vehicle id="3" depart="1.50">
        <route edges="540674229#1 540674229#2 540674229#3 540674229#4 -540978815 -540978814#0 540674244#0 540674244#1 540674244#2 -540674239#2 -540674239#1 -540674239#0 540674236#3 762999834#17 762999834#18 762999834#19 762999834#20 762999834#21 762999834#22 762999834#23 762999834#24 762999834#25 762999834#26 762999834#27 1306367754 -45057665#23 -45057665#22 -45057665#21 -45057665#20 -45057665#19 -45057665#18 -45057665#17 -45057665#16 -45057665#15 -45057665#14 -45057665#13 -45057665#12 -45057665#11 -45057665#10 -45057665#9 -45057665#8 1334317096#0 1334317096#1 1334317096#2 1334317096#3 -1334317098#2 -1334317098#1 -1334317098#0 -1334317098#6 1334317099#0 1334317099#1 1334317099#2 1334317099#3 1334317099#4 -1334466224#4 1334466225#0 1334466225#1 -1334466227#6 -1334466227#5 -1334466227#4 -1334466227#3 -1334466229#8 -1334466229#7 -1334466229#6 -1334466229#5 -1334466229#4 -1334466229#3 -1334466229#2 -1334482666#3 -1334482666#2 -1334482666#1 1334482667#1 -1334482665#0"/>
    </vehicle>
    <vehicle id="4" depart="2.00">
        <route edges="-540674365#0 540674314#4 540674314#5 -740792965 -265788695#0 265788723#6 -265788723#1 -265788723#0 774882127#7 774882127#8 -45057719#40 -45057719#39 -45057719#38 -45057719#37 -45057719#36 -45057719#35 -45057719#34 -45057719#33 -45057719#32 -45057719#31 -45057719#30 -45057719#29 -45057719#28 -45057719#27 -45057719#26 -45057719#25 -45057719#24 -45057719#23 -45057719#22 -45057719#21 -45057719#20 -45057719#19 -45057719#18 -45057719#17 -45057719#16 -45057719#15 -45057719#14 -45057719#13 -45057719#12 -45057719#11 -45057719#10 -45057719#9 -45057719#8 -45057719#7 -45057719#6 -45057719#5 -45057719#4 -45057719#3 -45057719#2 -45057719#1 -45057719#0 393398891 393398894#0 393398894#1 393398894#2 393398894#3 393398894#4 393398894#5 393398894#6 393398894#7 393398894#8 -393382343#23 -393382343#22 -393382343#21 -393382343#20 284979591 -393382344#10 -393382344#9 -393382344#8 -393382344#7 1285080550#0 -1285080552#1 -1285080552#0"/>
    </vehicle>
    <vehicle id="5" depart="2.50">
        <route edges="-232761850#13 232761850#13 232761850#14 232761850#15 232761850#16 232761850#17 762999830 762999834#7 762999834#8 762999834#9 762999834#10 762999834#11 762999834#12 762999834#13 762999834#14 762999834#15 762999834#16 762999834#17 762999834#18 762999834#19 762999834#20 762999834#21 762999834#22 762999834#23 762999834#24 762999834#25 762999834#26 762999834#27 1306367754 -45057665#23 -45057665#22 -45057665#21 -45057665#20 -45057665#19 -45057665#18 -45057665#17 -45057665#16 -45057665#15 -45057665#14 -45057665#13 -45057665#12 -45057665#11 -45057665#10 -45057665#9 -45057665#8 -45057665#7 -45057665#6 -45057665#5 -45057665#4 -45057665#3 -45057672#9 -45057672#8 -45057672#7 -45057672#6 -45057672#5 -45057672#4 -45057672#3 1331370702 1331370703#2 1331370703#3 1331370703#4 1331370703#5 1331370703#6 1331370712#4 1331370712#5 1331370712#6 1331370712#7"/>
    </vehicle>
    <vehicle id="6" depart="3.00">
        <route edges="-1243999730#4 -1243999730#3 -355947372#1 -355947372#0 435599200#0 435599200#1 435599200#2 -265788722#3 -265788722#2 -265788722#1 -265788722#0 233397872#0 233397872#1 232761850#5 232761850#6 232761850#7 232761850#8 232761850#9 232761850#10 232761850#11 232761850#12 232761850#13 232761850#14 232761850#15 232761850#16 232761850#17 762999830 762999834#7 762999834#8 762999834#9 762999834#10 762999834#11 762999834#12 762999834#13 762999834#14 762999834#15 762999834#16 762999834#17 762999834#18 762999834#19 762999834#20 762999834#21 762999834#22 762999834#23 762999834#24 762999834#25 762999834#26 762999834#27 1306367754 -45057665#23 -45057665#22 -45057665#21 -45057665#20 -45057665#19 -45057665#18 -45057665#17 -45057665#16 -45057665#15 -45057665#14 -45057665#13 -45057665#12 -45057665#11 -45057665#10 -45057665#9 -45057665#8 -45057665#7 -45057665#6 -45057665#5 -45057665#4 -1411066552#2 -1411066552#1 -1411066546#7"/>
    </vehicle>
    <vehicle id="7" depart="3.50">
        <route edges="1340002848 1340002844 -1340002857 -1340002856 1339933968#5 1340002836 1340002838 1339933974 -1339933977#14 -1339933977#13 -1339933977#12 -1339933977#11 -1339933977#10 -1339933977#9 -1339933977#8 -1339933977#7 -1339933977#6 -1339933977#5 -1339933977#4 -1339933977#3 -1339933977#2 -1339933977#1 -1339933977#0 232761850#0 232761850#1 232761850#2 232761850#3 232761850#4 232761850#5 232761850#6 232761850#7 232761850#8 232761850#9 232761850#10 232761850#11 232761850#12 232761850#13 232761850#14 232761850#15 232761850#16 232761850#17 762999830 762999834#7 762999834#8 762999834#9 762999834#10 762999834#11 762999834#12 762999834#13 762999834#14 762999834#15 762999834#16 762999834#17 762999834#18 762999834#19 762999834#20 762999834#21 762999834#22 762999834#23 762999834#24 762999834#25 762999834#26 762999834#27 1306367754 -45057665#23 -45057665#22 -45057665#21 -45057665#20 -45057665#19 -45057665#18 -45057665#17 -45057665#16 -45057665#15 -45057665#14 -45057665#13 -45057665#12 -45057665#11 -45057665#10 -45057665#9 -45057665#8 1334317096#0 1334317096#1 1334317096#2 1334317096#3 -1334317098#2 -1334317098#1 -1334317098#0 -1334317098#6 1334317099#0 1334317099#1 1334317099#2 1334317099#3 1334317099#4 -1334466224#4 1334466225#0 1334466225#1 -1334466227#6 -1334466227#5 -1334466227#4 1334466228#0 1334466228#1 1334466228#2 1334466228#3 1334466228#4 1334466228#5 1334466228#6 1334466228#7 -1334466230#1 -1334466230#0 -1334466230#6 -1334466230#5 1334466244#0 1334466244#1 1334466244#2 1334466244#3 1334466244#4 1334466255#1 1334466255#2 1334466267#1"/>
    </vehicle>
    <vehicle id="8" depart="4.00">
        <route edges="-233397872#0 233397872#0 233397872#1 232761850#5 232761850#6 232761850#7 232761850#8 232761850#9 232761850#10 232761850#11 232761850#12 232761850#13 232761850#14 232761850#15 232761850#16 232761850#17 762999830 762999834#7 762999834#8 762999834#9 762999834#10 762999834#11 762999834#12 762999834#13 762999834#14 762999834#15 762999834#16 762999834#17 762999834#18 762999834#19 762999834#20 762999834#21 762999834#22 762999834#23 762999834#24 762999834#25 762999834#26 762999834#27 1306367754 -45057665#23 -45057665#22 -45057665#21 -45057665#20 -45057665#19 -45057665#18 -45057665#17 -45057665#16 -45057665#15 -45057665#14 -45057665#13 -45057665#12 -45057665#11 -45057665#10 -45057665#9 1334482757#0 1334482757#1 1334482757#2 1334482757#3 1334482769"/>
    </vehicle>
    <vehicle id="9" depart="4.50">
        <route edges="393382337#12 -393382337#12 -393382337#11 -393382337#10 -393382337#9 -393382337#8 -393382337#7 -393382337#6 -393382337#5 -393382337#4 -393382337#3 -393382337#2 -393382337#1 -393382337#0 -393382343#23 -393382343#22 -393382343#21 -393382343#20 -393382343#19 -393382343#18 -393382343#17 -393382343#16 -393382343#15 -393382343#14 -393382343#13 -393382343#12 -393382343#11 -393382343#10 -393382343#9 -393382343#8 -393382343#7 -393382343#6 -393382343#5 -393382343#4 -393382343#3 393395177#0 -393395171#2 -1060444929"/>
    </vehicle>
    <vehicle id="10" depart="5.00">
        <route edges="-45057726#1 540667678#0 540667678#1 540667678#2 540667678#3 540667677#0 540667677#1 -265788693#2 265788705 265788708#1 265788708#2 -232761850#4 -232761850#3 -232761850#2 -232761850#1 -232761850#0 1339933977#0 1339933977#1 1339933977#2 1339933977#3 1339933977#4 1339933977#5 1339933977#6 1339933977#7 1339933977#8 1339933977#9 1339933977#10 1339933977#11 1339933977#12 1339933977#13 1339933977#14 1339933977#15 265788703#0 265788703#1 265788703#2 265788703#3 265788703#4 265788703#5 265788703#6 265788703#7 265788703#8 265788703#9 265788703#10 265788703#11 265788703#12 1341349064#0 1341349064#1 1341349064#2 1341349064#3 1341349064#4 241515669#0 241515669#1 -1337727163#1 -1337727163#0 -1337727164 -550048647#3 -1341166349 1341207430 1341207434 1341207438 1341207440 1341207446 1341371960 1341207450 -1341207451 -1341207537 -1341207538"/>
    </vehicle>
    <vehicle id="11" depart="5.50">
        <route edges="540991274#11 -540991274#11 -540991274#10 -540991274#9 -540991274#8 -540991274#7 -540991274#6 45057719#8 45057719#9 45057719#10 45057719#11 45057719#12 45057719#13 45057719#14 45057719#15 45057719#16 45057719#17 45057719#18 45057719#19 45057719#20 45057719#21 45057719#22 45057719#23 45057719#24 45057719#25 45057719#26 45057719#27 45057719#28 45057719#29 45057719#30 45057719#31 45057719#32 45057719#33 45057732#0 265788720#0 265788720#1 265788720#2 265788720#3 265788720#4 265788718#0 265788718#1 265788718#2 265788718#3 -540674175 -540667677#0"/>
    </vehicle>
    <vehicle id="12" depart="6.00">
        <route edges="-1334482660 -1334482659#0 1334482620#7 1334482620#8 -1334482620#3 -1334482620#2 1334482666#0 1334482666#1 1334482666#2 1334482666#3 1334466229#2 1334466229#3 1334466229#4 1334466229#5 1334466229#6 1334466229#7 1334466229#8 -1334466227#2 -1334466227#1 1334466226#0 1334466226#1 1334466226#2 1334466226#3 1334482679#0 1334482679#1 1334482682#1 1334482682#2 1334482682#3 1334482682#4 1334482682#5 1334482682#6 1334482682#7 1334482682#8 1334482683 -1334482691#7"/>
    </vehicle>
    <vehicle id="13" depart="6.50">
        <route edges="45057726#2 45057726#3 45057726#4 540667707#0 -540667704#0 -232761850#14 -232761850#13 -232761850#12 -232761850#11 -232761850#10 -232761850#9 -232761850#8 -435599204#12 355945708#0 355945708#1 355945708#2 355945708#3 355945708#4 355945708#5 355945708#6 355945708#7 -1243999730#1 -1243999730#0 -1243999731 -1339812368 -1339812371 1339812364 1339812362#0 1339812362#1 1339862121 1339909747 1339862123 1339812366"/>
    </vehicle>
    <vehicle id="14" depart="7.00">
        <route edges="355947647#4 355947647#5 355947647#6 -355947647#6 -355947647#5 -355947647#4 -355947647#3 -355947647#2 -355947647#1 540667639#0 540667639#1 540667641 -435599204#2 -435599204#1 -435599204#0 -435599200#6 -435599200#5 241515657#0 241515657#1 241515657#2 241515657#3 355943788 -241515724#9 -241515724#8 -241515724#7 -241515724#6 -241515724#5 -241515724#4 -241515724#3 -241515724#2 241515728#0"/>
    </vehicle>
    <vehicle id="15" depart="7.50">
        <route edges="1331370726#1 1331370716#1 1331370716#2 1331370716#3 1331370716#4 1331370716#5 1331370716#6 1331370716#7 -1331370713#3 -1331370703#7 -1331370703#6 -1331370703#5 -1331370703#4 -1331370703#3 -1331370703#2 -1331370702 45057672#3 45057672#4 45057672#5 45057672#6 45057672#7 45057672#8 45057672#9 45057665#3 45057665#4 45057665#5 45057665#6 45057665#7 45057665#8 45057665#9 45057665#10 45057665#11 45057665#12 45057665#13 45057665#14 45057665#15 45057665#16 45057665#17 45057665#18 45057665#19 45057665#20 45057665#21 45057665#22 45057665#23 1306367753 1340954070#0 1340954070#1 1340954070#2 1340954070#3 1340954070#4 1340954071 774882127#0 774882127#1 774882127#2 774882127#3 774882127#4 774882127#5 774882127#6 774882127#7 774882127#8 774882127#9 774882127#10 -540674300#0 762999834#4 762999834#5 1304415218#0 1304415218#1 -232761850#17 -232761850#16 -232761850#15 -232761850#14 -232761850#13 -232761850#12 -232761850#11 -232761850#10 -232761850#9 -232761850#8 -232761850#7 -232761850#6 -232761850#5 -232761850#4 -232761850#3 -232761850#2 -232761850#1 -435599200#9 265788698#0 265788698#1 540667655#0 540667655#1 -540667620#1 540991306"/>
    </vehicle>
    <vehicle id="16" depart="8.00">
        <route edges="-540674179 265788692#7 265788720#5 265788720#6 45057726#0 45057726#1 45057726#2 45057726#3 45057726#4 45057726#5 232761850#17 762999830 762999834#7 762999834#8 762999834#9 762999834#10 762999834#11 762999834#12 762999834#13 762999834#14 762999834#15 762999834#16 762999834#17 762999834#18 762999834#19 762999834#20 762999834#21 762999834#22 762999834#23 762999834#24 762999834#25 762999834#26 762999834#27 1306367754 -45057665#23 -45057665#22 -45057665#21 -45057665#20 -45057665#19 -45057665#18 -45057665#17 -45057665#16 -45057665#15 -45057665#14 -45057665#13 -45057665#12 -45057665#11 -45057665#10 -45057665#9 -45057665#8 1334317096#0 1334317096#1 1334317096#2 1334317096#3 -1334317098#2 -1334317098#1 -1334317098#0 -1334317098#6 1334317099#0 1334317099#1 1334317099#2 1334317099#3 1334317099#4 -1334466224#4 1334466225#0 1334466225#1 -1334466227#6 -1334466227#5 -1334466227#4 1334466228#0 1334466228#1 1334466228#2 1334466228#3 1334466228#4 1334466228#5 1334466228#6 1334466228#7 -1334466230#1 -1334466230#0 -1334466230#6 -1334466230#5 -1334466230#4 -1334482662#1 -1334482662#0 -1334466268#2 -1334466268#1 -1334466268#0 1334466266#3 1334466266#4 1334482636#0 1334482636#1 1334482636#2 1334482636#3 1334482636#4 1334482636#5 1334482644"/>
    </vehicle>
    <vehicle id="17" depart="8.50">
        <route edges="435599199 -265788703#26 -265788703#25 -265788703#24 -265788703#23 -265788703#22 -265788703#21 -265788703#20 -265788703#19 -265788703#18 -265788703#17 -265788703#16 -265788703#15 -265788703#14 -265788703#13 -265788703#12 -265788703#11 -265788703#10 -265788703#9 -265788703#8 -265788703#7 -265788703#6 -265788703#5 -265788703#4 -265788703#3 574491994#0 574491994#1 574491997 241515704#4 241515704#5 241515704#6 241515704#7 241515724#0 241515724#1 241515724#2 241515724#3 241515724#4 1339919450 1339927057 1339927053 1339927059 1339919453"/>
    </vehicle>
    <vehicle id="18" depart="9.00">
        <route edges="540667664#2 -540667670#1 -540667670#0 -1339933977#6 -1339933977#5 -1339933977#4 -1339933977#3 -1339933977#2 -1339933977#1 -1339933977#0 232761850#0 232761850#1 232761850#2 232761850#3 232761850#4 232761850#5 232761850#6 232761850#7 232761850#8 232761850#9 232761850#10 232761850#11 232761850#12 232761850#13 232761850#14 232761850#15 232761850#16 232761850#17 762999830 762999834#7 762999834#8 762999834#9 762999834#10 762999834#11 762999834#12 762999834#13 762999834#14 762999834#15 762999834#16 762999834#17 762999834#18 762999834#19 762999834#20 762999834#21 762999834#22 762999834#23 762999834#24 762999834#25 762999834#26 762999834#27 1306367754 -45057665#23 -45057665#22 -45057665#21 -45057665#20 -45057665#19 -45057665#18 -45057665#17 -45057665#16 -45057665#15 -45057665#14 -45057665#13 -45057665#12 -45057665#11 -45057665#10 -45057665#9 -45057665#8 1334317096#0 1334317096#1 1334317096#2 1334317096#3 -1334317098#2 -1334317098#1 -1334317098#0 -1334317098#6 1334317099#0 1334317099#1 1334317099#2 1334317099#3 1334317099#4 1334466224#0 1334466224#1 -1334482721#2 -1334482721#1 -1334482721#0 1334482681#5 1334482681#6 1334482681#7 1334482681#8 1334482729"/>
    </vehicle>
    <vehicle id="19" depart="9.50">
        <route edges="-241515732#5 -242486905#1 -242486905#0 242486906#0 242486906#1 242486906#2 242486906#3 242486906#4 242486906#5 242486906#6 242486906#7 242486906#8 242486906#9 242486906#10 242486906#11 435599208 393383531#0 393383531#1 -393383533#1 -393383533#0 -393382344#10 -393382344#9 -393382344#8 -393382344#7 -393382344#6 -393382344#5 -393382344#4 -393382344#3 -393382344#2 -393382344#1 -393382344#0 -393382343#18 -393382343#17 -393382343#16 -393382343#15 -393382343#14 -393382343#13 -393382343#12 -393382343#11 -393382343#10 -393382343#9 -393382343#8 -393382343#7 -393382343#6 393395173#0 -393395171#8 -393395171#7 -393395171#6 -393395171#5"/>
    </vehicle>
    <vehicle id="20" depart="10.00">
        <route edges="-1334466264#4 1334466247 -1334466244#8 -1334466244#7 -1334466244#6 -1334466244#5 -1334466244#4 -1334466244#3 -1334466244#2 -1334466244#1 -1334466244#0 -1334466230#4 -1334466230#3 1334466229#0 1334466229#1 1334466229#2 1334466229#3 1334466229#4 1334466229#5 1334466229#6 1334466229#7 1334466229#8 -1334466227#2 -1334466227#1 1334466226#0 1334466226#1 1334466226#2 1334466226#3 1334466226#4 1334466226#5 1334466226#6 1334466226#7 -1334466224#2 -1334466224#1 1334317100#0 1334317100#1 1334317100#2 1334317100#3 -1334317098#4 -1334317098#3 -1334317096#3 -1334317096#2 -1334317096#1 -1334317096#0 45057665#8 45057665#9 45057665#10 45057665#11 45057665#12 45057665#13 45057665#14 45057665#15 45057665#16 45057665#17 45057665#18 45057665#19 45057665#20 45057665#21 45057665#22 45057665#23 1306367753 1340954070#0 1340954070#1 1340954070#2 1340954070#3 1340954070#4 1340954071 774882127#0 774882127#1 774882127#2 774882127#3 774882127#4 774882127#5 774882127#6 774882127#7 774882127#8 774882127#9 774882127#10 -540674300#0 762999834#4 762999834#5 1304415218#0 1304415218#1 -232761850#17 -232761850#16 -232761850#15 -232761850#14 -232761850#13 -232761850#12 -232761850#11 -232761850#10 -232761850#9 -232761850#8 -232761850#7 -232761850#6 -232761850#5 -232761850#4 -232761850#3 -232761850#2 -232761850#1 -232761850#0 1339933977#0 1339933977#1 1339933977#2 1339933977#3 1339933977#4 1339933977#5 1339933977#6 1339933977#7 1339933977#8 1339933977#9 1339933977#10 1339933977#11 1339933977#12 1339933977#13 1339933977#14 1339933977#15 265788703#0 265788703#1 265788703#2 265788703#3 265788703#4 265788703#5 265788703#6 265788703#7 265788703#8 265788703#9 265788703#10 265788703#11 265788703#12 265788703#13 265788703#14 265788703#15 265788703#16 265788703#17 265788703#18 265788703#19 265788703#20 265788703#21 265788703#22 265788703#23 265788703#24 265788703#25 265788703#26 265788703#27 -242486906#11 -242486906#10 -242486906#9 -242486906#8 -242486906#7 -242486906#6 -242486906#5 -242486906#4 -242486906#3 -242486906#2 -242486906#1 -242486906#0 242486905#0 -242486905#0"/>
    </vehicle>
    <vehicle id="21" depart="10.50">
        <route edges="-1334482685 -1334482682#6 1334482686#1 -1334482723 1334482721#1 1334482721#2 -1334466224#1 1334317100#0 1334317100#1 1334317100#2 1334317100#3 -1334317098#4 -1334317098#3 -1334317096#3 -1334317096#2 -1334317096#1 -1334317096#0 45057665#8 45057665#9 45057665#10 45057665#11 45057665#12 45057665#13 45057665#14 45057665#15 45057665#16 45057665#17 45057665#18 45057665#19 45057665#20 45057665#21 45057665#22 45057665#23 1306367753 1340954070#0 1340954070#1 1340954070#2 -284973780#0 762999834#24 -435599209#14 -435599209#13 540991273#0 540991273#1 540991273#2 540991273#3 540991273#4 540991273#5 540991280#1 540991280#2 540991280#3 -45057719#2 -45057719#1 -45057719#0 393398891 393398894#0 393398894#1 393398894#2 393398894#3 393398894#4 393398894#5 393398894#6 393398894#7 393398894#8 393382337#0 -393382337#0"/>
    </vehicle>
    <vehicle id="22" depart="11.00">
        <route edges="1339927060 1339927061 1339927054 1339927055 1339927056 1339919451 241515724#6 241515724#7 241515724#8 241515724#9 241515724#10 241515724#11 435599209#0 435599209#1 435599209#2 435599209#3 435599209#4 -540674281#3 -540674281#2 -540674281#1 -540674281#0 -540674247#8 -540674247#7 -540674239#6 -540674239#5 -540986467#2 -540986467#1 -540674244#1"/>
    </vehicle>
    <vehicle id="23" depart="11.50">
        <route edges="-540667699#0 -540667693#3 -540667693#2 -540667693#1 -540667693#0 45057732#4 45057732#5 45057732#6 45057732#7 -232761850#16 -232761850#15 -232761850#14 -232761850#13 -232761850#12 -232761850#11 -232761850#10 -232761850#9 -232761850#8 -232761850#7 -232761850#6 -232761850#5 -232761850#4 -232761850#3 -232761850#2 -232761850#1 -435599200#9 -435599200#8 -435599200#7 -435599200#6 -435599200#5 241515657#0 241515657#1 241515657#2 241515657#3 355943788 -241515724#9 -241515724#8 -241515724#7 -241515724#6 -241515724#5"/>
    </vehicle>
    <vehicle id="24" depart="12.00">
        <route edges="-265788695#6 -540674312#7 540674318#0 540674318#1 -540978828#0 540978775#1"/>
    </vehicle>
    <vehicle id="25" depart="12.50">
        <route edges="1340002836 1340002838 1339933974 -1339933977#14 -1339933977#13 -241515724#11 -241515724#10 -1243999730#4 -1243999730#3 -1243999730#2 -1243999730#1 -1243999730#0 -1243999731 -1339812368 -1339812371 1339812364 1339812362#0 1339812362#1 1339862121 1339909747 1339862140 1339862145 1339862154 1339862159#0 1339862159#1 1339862156 1339862165 1339862168 1339862115#0 1339862115#1 1339862170 1339862116 1339862153 1339862150 1339862146"/>
    </vehicle>
    <vehicle id="26" depart="13.00">
        <route edges="-1341306489#1 -1341167395#3 -1341167395#2 -1341167395#1 1341306439#1 1341349070#0 -241515732#0 -1341349065 -1341349068 -1341349064#9 -1341349064#8 -1341349064#7 -1341349064#6 -1341349064#5 -1341349064#4 -1341349064#3 241515704#0 241515704#1 241515704#2 241515704#3 241515704#4 241515704#5 241515704#6 241515704#7 241515724#0 241515724#1 241515724#2 241515724#3 241515724#4 241515724#5 241515724#6 241515724#7"/>
    </vehicle>
    <vehicle id="27" depart="13.50">
        <route edges="-1341207442 1341207445 1341371959 1341207449#0 1341371961#1 1341371948 -1341371968#10 -1341371968#9 -1341371968#8 -1341371968#7 -1341371968#6 -1341371968#5 -1341371968#4 -1341371968#3 -1341371968#2 -1341371968#1 -1341371968#0 -1341372013 -1341371942#1 1341167394#1 1341167394#2 1341167394#3 1341167394#4 1341306484#0 1341306484#1 1341306482 1341306481 1341306479 1341306477 1341306475 1341349079 1341349069 1341349076 1341349063 -1341349064#9 -1341349064#8 -1341349064#7 -1341349064#6 -1341349064#5 -1341349064#4 -1341349064#3 -1341349064#2 -1341349064#1 -1341349064#0 -265788703#12 -265788703#11 -265788703#10 -265788703#9 -265788703#8 -265788703#7 -265788703#6 -265788703#5 -265788703#4 -265788703#3 -265788703#2 -265788703#1 -265788703#0 -1339933977#15 -1339933977#14 -1339933977#13 -1339933977#12 -1339933977#11 -1339933977#10 -1339933977#9 -1339933977#8 -1339933977#7 -1339933977#6 -1339933977#5 -1339933977#4 -1339933977#3 -1339933977#2 -1339933977#1 -1339933977#0 232761850#0 232761850#1 232761850#2 232761850#3 232761850#4 232761850#5 232761850#6 232761850#7 232761850#8 232761850#9 232761850#10 232761850#11 232761850#12 232761850#13 232761850#14 232761850#15 232761850#16 232761850#17 762999830 762999834#7 45057719#40 774882127#9 540674369 540674368#1 540674368#2 -265788723#6 265788695#0 265788695#1 265788695#2 265788695#3 265788695#4 265788695#5 265788695#6 265788695#7 265788695#8 265788695#9 265788695#10 265788695#11 540674302#0 540674336#0 -540674304#1 -540674304#0"/>
    </vehicle>
    <vehicle id="28" depart="14.00">
        <route edges="769192383#5 -1060290654 1060290655#6 -393382337#9 -393382337#8 -393382337#7 -393382337#6 -393382337#5 -393382337#4 -393382337#3 -393382337#2 -393382337#1 -393382337#0 -393398894#8 -393398894#7 -393398894#6 -393398894#5 -393398894#4 -393398894#3 -393398894#2 -393398894#1 -393398894#0 -393398891 45057719#0 45057719#1 45057719#2 45057719#3 -540991285#6 -540991285#5 -540991285#4 -540991285#3 -540991285#2 -540991285#1 -540991285#0 435599209#8 435599209#9 -540674277#1 -540674277#0 762999834#23 284973780#0 1340954070#3 1340954070#4 1340954027 1340954067 1340954065 1340954059 1340954055 1340954051 1340954047 1340954031"/>
    </vehicle>
    <vehicle id="29" depart="14.50">
        <route edges="45057719#19 45057719#20 45057719#21 45057719#22 45057719#23 45057719#24 45057719#25 265788701#0 265788701#1 265788701#2"/>
    </vehicle>
    <vehicle id="30" depart="15.00">
        <route edges="-241610644#1 -241610644#0 -241610742#2 -241610742#1 -241610742#0 265788703#15 265788703#16 265788703#17 265788703#18 265788703#19 265788703#20 265788703#21 265788703#22 265788703#23 265788703#24 265788703#25 265788703#26 265788703#27 435599208 393383531#0 393383531#1 -393383533#1 -393383533#0 -393382344#10 -393382344#9 -393382344#8 1285080539#0 1285080552#0 1285080561#0 -1285080563"/>
    </vehicle>
    <vehicle id="31" depart="15.50">
        <route edges="-393395176#6 -393395165#1 -393395165#0 393382343#2 393382343#3 393382343#4 393382343#5 393382343#6 393382343#7 393382343#8 393382343#9 393382343#10 393382343#11 393382343#12 393382343#13 393382343#14 393382343#15 393382343#16 393382343#17 393382343#18 393382343#19 393382343#20 393382343#21 393382343#22 393382343#23 -393398894#8 -393398894#7 -393398894#6 -393398894#5 -393398894#4 -393398894#3 -393398894#2 -393398894#1 -393398894#0 -393398891 45057719#0 45057719#1 45057719#2 -540991280#3 -540991280#2 -540991280#1 -540991273#5 -540991273#4 -540991273#3 -540991273#2 -540991273#1 -540991273#0 435599209#13 435599209#14 762999834#25 762999834#26 762999834#27 1306367754 -45057665#23 -45057665#22 -45057665#21 -45057665#20 303999979#0 303999980 -303999983 -303999982 -303999981 -303999979#1"/>
    </vehicle>
    <vehicle id="32" depart="16.00">
        <route edges="540667696#1 540667694#1 540667697#1 -45057719#35"/>
    </vehicle>
    <vehicle id="33" depart="16.50">
        <route edges="1340954045 1340954038 1340954028 -540674356 -540674351#1 -540674353#1 -540674355#1"/>
    </vehicle>
    <vehicle id="34" depart="17.00">
        <route edges="540674312#2 540674302#3 540674302#4 265788700#11 265788700#12 265788700#13 265788700#14 265788700#15 265788700#16 265788700#17 265788700#18 1410837239#0 1410837239#1 774882127#4 774882127#5 774882127#6 774882127#7 774882127#8 -45057719#40 -45057719#39 -45057719#38 -45057719#37 -45057719#36 -45057719#35 -45057719#34 -45057719#33 -45057719#32 -45057719#31 -45057719#30 -45057719#29 -45057719#28 -45057719#27 -45057719#26 -45057719#25 -45057719#24 -45057719#23 -45057719#22 -45057719#21 -45057719#20 -45057719#19 -45057719#18 -45057719#17 -45057719#16 -45057719#15 -45057719#14 -45057719#13 -45057719#12 -45057719#11 -45057719#10 -45057719#9 -45057719#8 -45057719#7 -45057719#6 -45057719#5 -45057719#4 -45057719#3 -45057719#2 -45057719#1 -45057719#0 393398891 393398894#0 393398894#1 393398894#2 393398894#3 393398894#4 393398894#5 393398894#6 393398894#7 393398894#8 -393382343#23 -393382343#22 -393382343#21 -393382343#20 -393382343#19 -393382343#18 -393382343#17 -393382343#16 -393382343#15 -393382343#14 -393382343#13 -393382343#12 -393382343#11 -393382343#10 -804538790#2 -804538790#1 -804538790#0 -804507550#2"/>
    </vehicle>
    <vehicle id="35" depart="17.50">
        <route edges="-265788695#12 -265788695#11 -265788695#10 -265788695#9 -265788695#8 -265788695#7 -265788695#6 -265788695#5 -265788695#4 -265788695#3 -265788695#2 -265788695#1 -265788695#0 265788723#6 -540674368#2 -540674368#1 -540674369 774882127#10 -540674300#0 762999834#4 762999834#5 1304415218#0 1304415218#1 -232761850#17 -232761850#16 -232761850#15 -232761850#14 -232761850#13 -232761850#12 -232761850#11 -232761850#10 -232761850#9 -232761850#8 -232761850#7 -232761850#6 -232761850#5 -232761850#4 -232761850#3 -232761850#2 -232761850#1 -232761850#0 1339933977#0 1339933977#1 540674419#0 540674419#1 265788698#5 265788698#6 265788698#7 -265788698#7"/>
    </vehicle>
    <vehicle id="36" depart="18.00">